Version 4
SHEET 1 1092 680
WIRE 496 -96 448 -96
WIRE 576 -96 496 -96
WIRE 704 -96 656 -96
WIRE 848 -96 704 -96
WIRE 992 -96 928 -96
WIRE -224 -80 -304 -80
WIRE -304 -32 -304 -80
WIRE 800 0 768 0
WIRE 768 32 768 0
WIRE 704 48 704 -96
WIRE 736 48 704 48
WIRE -304 64 -304 48
WIRE -304 64 -416 64
WIRE 992 64 992 -96
WIRE 992 64 800 64
WIRE 1056 64 992 64
WIRE 1072 64 1056 64
WIRE -304 80 -304 64
WIRE 496 80 496 -96
WIRE 512 80 496 80
WIRE 624 80 576 80
WIRE 736 80 624 80
WIRE -416 112 -416 64
WIRE 768 128 768 96
WIRE 800 128 768 128
WIRE 624 224 624 160
WIRE -304 240 -304 160
WIRE -224 240 -304 240
WIRE 112 352 112 304
WIRE 112 464 112 432
FLAG -416 112 0
FLAG -224 240 VSS
FLAG -224 -80 VDD
FLAG 800 0 VDD
FLAG 800 128 VSS
FLAG 1056 64 out
FLAG 448 -96 in
FLAG 624 224 0
FLAG 112 464 0
FLAG 112 304 in
SYMBOL voltage -304 -48 R0
WINDOW 123 0 0 Left 0
WINDOW 39 0 0 Left 0
SYMATTR InstName V1
SYMATTR Value 5
SYMBOL voltage -304 64 R0
WINDOW 123 0 0 Left 0
WINDOW 39 0 0 Left 0
SYMATTR InstName V2
SYMATTR Value 5
SYMBOL OpAmps\\opamp2 768 0 R0
SYMATTR InstName U1
SYMATTR Value LF356/NS
SYMBOL res 672 -112 R90
WINDOW 0 0 56 VBottom 2
WINDOW 3 32 56 VTop 2
SYMATTR InstName R2
SYMATTR Value 10k
SYMBOL res 944 -112 R90
WINDOW 0 0 56 VBottom 2
WINDOW 3 32 56 VTop 2
SYMATTR InstName R1
SYMATTR Value 10k
SYMBOL cap 576 64 R90
WINDOW 0 0 32 VBottom 2
WINDOW 3 32 32 VTop 2
SYMATTR InstName C1
SYMATTR Value 100n
SYMBOL res 608 64 R0
SYMATTR InstName R3
SYMATTR Value 10k
SYMBOL voltage 112 336 R0
WINDOW 123 24 124 Left 2
WINDOW 39 0 0 Left 0
SYMATTR InstName V3
SYMATTR Value ""
SYMATTR Value2 AC 1
TEXT -40 184 Left 2 !.ac dec 1000 10 10k
TEXT -40 160 Left 2 !.inc LF356.MOD
