Version 4
SHEET 1 3024 716
WIRE 1744 -112 1664 -112
WIRE 1856 -112 1824 -112
WIRE 1872 -112 1856 -112
WIRE 2032 -112 1952 -112
WIRE 1136 -96 1136 -208
WIRE 2656 -96 2608 -96
WIRE 2816 -96 2736 -96
WIRE 1264 -48 1232 -48
WIRE 1456 -48 1344 -48
WIRE 1136 0 1136 -32
WIRE 1456 32 1456 -48
WIRE 1648 32 1456 32
WIRE 1664 32 1664 -112
WIRE 1664 32 1648 32
WIRE 80 48 -32 48
WIRE 1920 48 1920 16
WIRE 464 64 352 64
WIRE 1856 64 1856 -112
WIRE 1888 64 1856 64
WIRE 2688 64 2688 32
WIRE -32 80 -32 48
WIRE 2032 80 2032 -112
WIRE 2032 80 1952 80
WIRE 2208 80 2032 80
WIRE 2496 80 2208 80
WIRE 2608 80 2608 -96
WIRE 2608 80 2576 80
WIRE 2656 80 2608 80
WIRE 1296 96 1296 64
WIRE 1648 96 1648 32
WIRE 1712 96 1648 96
WIRE 1824 96 1776 96
WIRE 1888 96 1824 96
WIRE 2816 96 2816 -96
WIRE 2816 96 2720 96
WIRE 2896 96 2816 96
WIRE 1136 112 1136 80
WIRE 1232 112 1232 -48
WIRE 1232 112 1136 112
WIRE 1264 112 1232 112
WIRE 2656 112 2640 112
WIRE 1456 128 1456 32
WIRE 1456 128 1328 128
WIRE 352 144 352 64
WIRE 1008 144 912 144
WIRE 1088 144 1072 144
WIRE 1264 144 1088 144
WIRE 1920 160 1920 112
WIRE -32 176 -32 160
WIRE -32 176 -112 176
WIRE 2640 176 2640 112
WIRE 2688 176 2688 128
WIRE 2496 192 2432 192
WIRE 2608 192 2608 80
WIRE 2608 192 2576 192
WIRE -112 208 -112 176
WIRE -32 208 -32 176
WIRE 1296 208 1296 160
WIRE 1824 224 1824 176
WIRE 352 256 352 224
WIRE 1088 256 1088 224
WIRE -32 320 -32 288
WIRE 80 320 -32 320
WIRE 352 384 352 336
WIRE 752 448 720 448
WIRE 720 528 720 448
WIRE 352 560 352 464
WIRE 720 656 720 608
FLAG -112 208 0
FLAG 80 320 VSS
FLAG 80 48 VDD
FLAG 464 64 noise
FLAG 1296 64 VDD
FLAG 1296 208 VSS
FLAG 1136 -208 0
FLAG 912 144 noise
FLAG 1088 256 0
FLAG 1456 128 preamp_out
FLAG 2208 80 Allp_out
FLAG 2688 32 VDD
FLAG 2688 176 VSS
FLAG 2640 176 0
FLAG 752 448 audio_in
FLAG 2432 192 audio_in
FLAG 2896 96 power_In
FLAG 1920 16 VDD
FLAG 1920 160 VSS
FLAG 1824 224 0
FLAG 720 656 0
FLAG 352 560 power_In
DATAFLAG 2880 96 ""
SYMBOL voltage -32 64 R0
WINDOW 123 0 0 Left 0
WINDOW 39 0 0 Left 0
SYMATTR InstName V1
SYMATTR Value 5
SYMBOL voltage -32 192 R0
WINDOW 123 0 0 Left 0
WINDOW 39 0 0 Left 0
SYMATTR InstName V2
SYMATTR Value 5
SYMBOL OpAmps\\opamp2 1296 64 R0
SYMATTR InstName U1
SYMATTR Value LF356/NS
SYMBOL voltage 352 128 R0
WINDOW 123 0 0 Left 0
WINDOW 39 0 0 Left 0
SYMATTR InstName V3
SYMATTR Value SINE(0 100m 60)
SYMBOL voltage 352 240 R0
WINDOW 123 0 0 Left 0
WINDOW 39 0 0 Left 0
SYMATTR InstName V4
SYMATTR Value SINE(0 300m 2k)
SYMBOL voltage 352 368 R0
WINDOW 123 0 0 Left 0
WINDOW 39 0 0 Left 0
SYMATTR InstName V5
SYMATTR Value SINE(0 20m 300)
SYMBOL res 1360 -64 R90
WINDOW 0 0 56 VBottom 2
WINDOW 3 32 56 VTop 2
SYMATTR InstName R1
SYMATTR Value 2k
SYMBOL res 1120 -16 R0
SYMATTR InstName R2
SYMATTR Value 1k
SYMBOL cap 1120 -96 R0
SYMATTR InstName C1
SYMATTR Value 10µ
SYMBOL cap 1072 128 R90
WINDOW 0 0 32 VBottom 2
WINDOW 3 32 32 VTop 2
SYMATTR InstName C2
SYMATTR Value .01µ
SYMBOL res 1072 128 R0
SYMATTR InstName R3
SYMATTR Value 1000000
SYMBOL OpAmps\\opamp2 2688 32 R0
SYMATTR InstName U3
SYMATTR Value LF356/NS
SYMBOL res 2752 -112 R90
WINDOW 0 0 56 VBottom 2
WINDOW 3 32 56 VTop 2
SYMATTR InstName R7
SYMATTR Value 10k
SYMBOL res 2592 64 R90
WINDOW 0 0 56 VBottom 2
WINDOW 3 32 56 VTop 2
SYMATTR InstName R8
SYMATTR Value 10k
SYMBOL res 2592 176 R90
WINDOW 0 0 56 VBottom 2
WINDOW 3 32 56 VTop 2
SYMATTR InstName R9
SYMATTR Value 10k
SYMBOL voltage 720 512 R0
WINDOW 123 0 0 Left 0
WINDOW 39 0 0 Left 0
SYMATTR InstName V6
SYMATTR Value SINE(0 300m 444)
SYMBOL OpAmps\\opamp2 1920 16 R0
SYMATTR InstName U2
SYMATTR Value LF356/NS
SYMBOL res 1968 -128 R90
WINDOW 0 0 56 VBottom 2
WINDOW 3 32 56 VTop 2
SYMATTR InstName R4
SYMATTR Value 10k
SYMBOL res 1840 -128 R90
WINDOW 0 0 56 VBottom 2
WINDOW 3 32 56 VTop 2
SYMATTR InstName R5
SYMATTR Value 10k
SYMBOL cap 1776 80 R90
WINDOW 0 0 32 VBottom 2
WINDOW 3 32 32 VTop 2
SYMATTR InstName C3
SYMATTR Value 100n
SYMBOL res 1808 80 R0
SYMATTR InstName R6
SYMATTR Value 10k
TEXT -24 432 Left 2 !.inc LF356.MOD
TEXT -136 456 Left 2 !.tran 1
TEXT 392 176 Left 2 ;mic input
TEXT 1248 -112 Left 2 ;in lab i made r1 100k
TEXT -136 480 Left 2 !.four 444 V(power_In)
