Version 4
SHEET 1 1288 680
WIRE -704 -64 -800 -64
WIRE -800 -32 -800 -64
WIRE 144 0 128 0
WIRE 304 48 240 48
WIRE -800 64 -800 48
WIRE -800 64 -880 64
WIRE 304 64 304 48
WIRE 240 80 240 48
WIRE -880 96 -880 64
WIRE -800 96 -800 64
WIRE 128 112 128 0
WIRE 96 128 48 128
WIRE 208 144 208 0
WIRE 48 144 48 128
WIRE -64 160 -176 160
WIRE -48 160 -64 160
WIRE 240 160 240 144
WIRE 880 160 496 160
WIRE 416 176 272 176
WIRE 496 176 496 160
WIRE 496 176 416 176
WIRE 880 176 880 160
WIRE 1008 176 960 176
WIRE 1136 176 1072 176
WIRE 1200 176 1136 176
WIRE 1232 176 1200 176
WIRE -176 208 -176 160
WIRE -48 224 -48 160
WIRE 96 224 -48 224
WIRE 1136 224 1136 176
WIRE 464 240 416 240
WIRE 496 240 464 240
WIRE -800 256 -800 176
WIRE -704 256 -800 256
WIRE 208 256 208 208
WIRE 128 288 128 240
WIRE 464 288 464 240
WIRE -176 352 -176 288
WIRE 1136 352 1136 304
WIRE 464 384 464 368
FLAG -176 352 0
FLAG -704 -64 VDD
FLAG -704 256 VSS
FLAG -880 96 0
FLAG 48 144 0
FLAG 128 288 0
FLAG 208 256 VDD
FLAG 464 384 0
FLAG 1136 352 0
FLAG 304 64 0
FLAG -64 160 in
FLAG 1200 176 out
SYMBOL ZZZ\\Robertugo\\Lm386 144 176 R0
SYMATTR InstName U1
SYMBOL voltage -176 192 R0
WINDOW 123 24 124 Left 2
WINDOW 39 0 0 Left 0
SYMATTR Value2 AC 1
SYMATTR InstName V1
SYMATTR Value SINE(0 1 444)
SYMBOL voltage -800 -48 R0
WINDOW 123 0 0 Left 0
WINDOW 39 0 0 Left 0
SYMATTR InstName V2
SYMATTR Value 5
SYMBOL voltage -800 80 R0
WINDOW 123 0 0 Left 0
WINDOW 39 0 0 Left 0
SYMATTR InstName V3
SYMATTR Value 5
SYMBOL cap 400 176 R0
SYMATTR InstName C1
SYMATTR Value 33n
SYMBOL cap 480 176 R0
SYMATTR InstName C2
SYMATTR Value 33n
SYMBOL res 448 272 R0
SYMATTR InstName R1
SYMATTR Value 10
SYMBOL res 1120 208 R0
SYMATTR InstName R2
SYMATTR Value 30
SYMBOL cap 224 80 R0
SYMATTR InstName C6
SYMATTR Value 1µ
SYMBOL ind 864 192 R270
WINDOW 0 32 56 VTop 2
WINDOW 3 5 56 VBottom 2
SYMATTR InstName L1
SYMATTR Value 10m
SYMBOL cap 1072 160 R90
WINDOW 0 0 32 VBottom 2
WINDOW 3 32 32 VTop 2
SYMATTR InstName C7
SYMATTR Value 100µ
TEXT -904 408 Left 2 !.tran 1
TEXT -904 376 Left 2 ;.ac dec 1000 20 100k
TEXT -888 352 Left 2 !.four 444Hz V(in) V(out)
