Version 4
SHEET 1 880 680
WIRE -464 0 -576 0
WIRE -576 48 -576 0
WIRE -576 160 -576 128
WIRE -576 160 -608 160
WIRE -576 176 -576 160
WIRE -576 320 -576 256
WIRE -464 320 -576 320
FLAG -608 160 0
FLAG -464 0 VDD
FLAG -464 320 VSS
SYMBOL OpAmps\\opamp2 176 64 R0
SYMATTR InstName U1
SYMATTR Value LF411
SYMBOL voltage -576 32 R0
WINDOW 123 0 0 Left 0
WINDOW 39 0 0 Left 0
SYMATTR InstName V1
SYMATTR Value 5
SYMBOL voltage -576 160 R0
WINDOW 123 0 0 Left 0
WINDOW 39 0 0 Left 0
SYMATTR InstName V2
SYMATTR Value 5
TEXT -584 408 Left 2 !.inc LF411.301
