Version 4
SHEET 1 3024 680
WIRE 1136 -96 1136 -208
WIRE 1920 -96 1888 -96
WIRE 2096 -96 2000 -96
WIRE 2656 -96 2608 -96
WIRE 2816 -96 2736 -96
WIRE 1264 -48 1232 -48
WIRE 1456 -48 1344 -48
WIRE 1136 0 1136 -32
WIRE 1760 32 1744 32
WIRE 1888 32 1888 -96
WIRE 1888 32 1840 32
WIRE 80 48 -32 48
WIRE 1968 48 1968 16
WIRE 464 64 352 64
WIRE 704 64 672 64
WIRE 1888 64 1888 32
WIRE 1936 64 1888 64
WIRE 2688 64 2688 32
WIRE -32 80 -32 48
WIRE 2096 80 2096 -96
WIRE 2096 80 2000 80
WIRE 2208 80 2096 80
WIRE 2496 80 2208 80
WIRE 2608 80 2608 -96
WIRE 2608 80 2576 80
WIRE 2656 80 2608 80
WIRE 1296 96 1296 64
WIRE 1456 96 1456 -48
WIRE 1744 96 1744 32
WIRE 1744 96 1456 96
WIRE 1904 96 1888 96
WIRE 1936 96 1904 96
WIRE 2816 96 2816 -96
WIRE 2816 96 2720 96
WIRE 2896 96 2816 96
WIRE 1136 112 1136 80
WIRE 1232 112 1232 -48
WIRE 1232 112 1136 112
WIRE 1264 112 1232 112
WIRE 1744 112 1744 96
WIRE 1760 112 1744 112
WIRE 1888 112 1888 96
WIRE 1888 112 1840 112
WIRE 2656 112 2640 112
WIRE 1456 128 1456 96
WIRE 1456 128 1328 128
WIRE 352 144 352 64
WIRE 672 144 672 64
WIRE 1008 144 912 144
WIRE 1088 144 1072 144
WIRE 1264 144 1088 144
WIRE 1968 160 1968 112
WIRE -32 176 -32 160
WIRE -32 176 -112 176
WIRE 2640 176 2640 112
WIRE 2688 176 2688 128
WIRE 2496 192 2432 192
WIRE 2608 192 2608 80
WIRE 2608 192 2576 192
WIRE -112 208 -112 176
WIRE -32 208 -32 176
WIRE 1296 208 1296 160
WIRE 1904 224 1904 96
WIRE 1904 224 1840 224
WIRE 1936 224 1904 224
WIRE 352 256 352 224
WIRE 1088 256 1088 224
WIRE 672 272 672 224
WIRE 1888 288 1840 288
WIRE 1936 288 1888 288
WIRE -32 320 -32 288
WIRE 80 320 -32 320
WIRE 1888 336 1888 288
WIRE 352 384 352 336
WIRE 352 496 352 464
FLAG -112 208 0
FLAG 80 320 VSS
FLAG 80 48 VDD
FLAG 352 496 0
FLAG 464 64 noise
FLAG 1296 64 VDD
FLAG 1296 208 VSS
FLAG 1136 -208 0
FLAG 912 144 noise
FLAG 1088 256 0
FLAG 1456 128 preamp_out
FLAG 1968 16 VDD
FLAG 1968 160 VSS
FLAG 1888 336 0
FLAG 2208 80 Allp_out
FLAG 2688 32 VDD
FLAG 2688 176 VSS
FLAG 2640 176 0
FLAG 672 272 noise
FLAG 704 64 audio_in
FLAG 2432 192 audio_in
FLAG 2896 96 power_In
SYMBOL voltage -32 64 R0
WINDOW 123 0 0 Left 0
WINDOW 39 0 0 Left 0
SYMATTR InstName V1
SYMATTR Value 5
SYMBOL voltage -32 192 R0
WINDOW 123 0 0 Left 0
WINDOW 39 0 0 Left 0
SYMATTR InstName V2
SYMATTR Value 5
SYMBOL OpAmps\\opamp2 1296 64 R0
SYMATTR InstName U1
SYMATTR Value LF356/NS
SYMBOL voltage 352 128 R0
WINDOW 123 0 0 Left 0
WINDOW 39 0 0 Left 0
SYMATTR InstName V3
SYMATTR Value SINE(0 10m 60)
SYMBOL voltage 352 240 R0
WINDOW 123 0 0 Left 0
WINDOW 39 0 0 Left 0
SYMATTR InstName V4
SYMATTR Value SINE(0 30m 2k)
SYMBOL voltage 352 368 R0
WINDOW 123 0 0 Left 0
WINDOW 39 0 0 Left 0
SYMATTR InstName V5
SYMATTR Value SINE(0 2m 300)
SYMBOL res 1360 -64 R90
WINDOW 0 0 56 VBottom 2
WINDOW 3 32 56 VTop 2
SYMATTR InstName R1
SYMATTR Value 10k
SYMBOL res 1120 -16 R0
SYMATTR InstName R2
SYMATTR Value 1k
SYMBOL cap 1120 -96 R0
SYMATTR InstName C1
SYMATTR Value 10µ
SYMBOL cap 1072 128 R90
WINDOW 0 0 32 VBottom 2
WINDOW 3 32 32 VTop 2
SYMATTR InstName C2
SYMATTR Value .01µ
SYMBOL res 1072 128 R0
SYMATTR InstName R3
SYMATTR Value 1000000
SYMBOL OpAmps\\opamp2 1968 16 R0
SYMATTR InstName U2
SYMATTR Value LF356/NS
SYMBOL res 1856 16 R90
WINDOW 0 0 56 VBottom 2
WINDOW 3 32 56 VTop 2
SYMATTR InstName R4
SYMATTR Value 10k
SYMBOL res 1856 96 R90
WINDOW 0 0 56 VBottom 2
WINDOW 3 32 56 VTop 2
SYMATTR InstName R5
SYMATTR Value 5.3k
SYMBOL cap 1824 224 R0
SYMATTR InstName C3
SYMATTR Value 1n
SYMBOL cap 1920 224 R0
SYMATTR InstName C4
SYMATTR Value 1n
SYMBOL res 2016 -112 R90
WINDOW 0 0 56 VBottom 2
WINDOW 3 32 56 VTop 2
SYMATTR InstName R6
SYMATTR Value 10k
SYMBOL OpAmps\\opamp2 2688 32 R0
SYMATTR InstName U3
SYMATTR Value LF356/NS
SYMBOL res 2752 -112 R90
WINDOW 0 0 56 VBottom 2
WINDOW 3 32 56 VTop 2
SYMATTR InstName R7
SYMATTR Value 20k
SYMBOL res 2592 64 R90
WINDOW 0 0 56 VBottom 2
WINDOW 3 32 56 VTop 2
SYMATTR InstName R8
SYMATTR Value 10k
SYMBOL res 2592 176 R90
WINDOW 0 0 56 VBottom 2
WINDOW 3 32 56 VTop 2
SYMATTR InstName R9
SYMATTR Value 10k
SYMBOL voltage 672 128 R0
WINDOW 123 0 0 Left 0
WINDOW 39 0 0 Left 0
SYMATTR InstName V6
SYMATTR Value SINE(0 300m 444)
TEXT -24 432 Left 2 !.inc LF356.MOD
TEXT -132 452 Left 2 !.tran 1
TEXT 392 176 Left 2 ;mic input
